OPT_V9/My_campus_w_initial_sub_3_active_25_03_11_44/powerflow_results_t7.txt
Pandapower Network Debug Info
==================================================

BUS:
       vm_pu  va_degree      p_mw    q_mvar
0   1.003066   0.119733 -0.001828 -0.000493
1   1.004793   0.220283 -0.002238  0.000000
2   1.005423   0.284136 -0.001039  0.000434
3   1.004070   0.140446 -0.001204 -0.000393
4   0.999771   0.062668 -0.000114  0.000650
5   1.000670   0.132988  0.000007  0.002430
6   1.003189   0.161045 -0.002079 -0.001056
7   1.001208   0.003104 -0.001239 -0.000891
8   1.000249   0.011112 -0.001678 -0.000941
9   0.999939   0.000443  0.006180  0.007851
10  0.999930   0.000409  0.009213  0.005785
11  0.999924   0.000400  0.007728  0.005722
12  0.999898   0.000145  0.008892  0.003822
13  0.999887   0.000183  0.007625  0.007784
14  0.999880   0.000111  0.010439  0.005569
15  0.999968   0.000384  0.000000  0.000000
16  0.999968   0.000384  0.000000  0.000000
17  0.999903   0.000206  0.000000  0.000000
18  0.999903   0.000207  0.000000  0.000000
19  1.000000   0.000000 -0.016861 -0.023928
20  1.000000   0.000003  0.000000  0.000000
21  1.000000   0.000000 -0.021887 -0.022378
22  1.000000   0.000003  0.000000  0.000000
--------------------------------------------------

LINE:
    p_from_mw  q_from_mvar   p_to_mw  q_to_mvar         pl_mw       ql_mvar  i_from_ka   i_to_ka      i_ka  vm_from_pu  va_from_degree  vm_to_pu  va_to_degree  loading_percent
0    0.016851     0.019928 -0.016850  -0.019928  6.661956e-07  5.194437e-07   0.001005  0.001005  0.001005    1.000000        0.000003  0.999968      0.000384         0.436739
1    0.021877     0.018378 -0.021875  -0.018376  2.195930e-06  1.712203e-06   0.001100  0.001100  0.001100    1.000000        0.000003  0.999903      0.000206         0.478150
2    0.023122     0.019359 -0.023121  -0.019358  7.032525e-07  5.483376e-07   0.001161  0.001161  0.001161    0.999968        0.000384  0.999939      0.000443         0.504669
3    0.008892     0.003822 -0.008892  -0.003822  3.240178e-08  2.526420e-08   0.000373  0.000373  0.000373    0.999903        0.000206  0.999898      0.000145         0.161986
4    0.018064     0.013353 -0.018064  -0.013353  2.759780e-07  2.151846e-07   0.000865  0.000865  0.000865    0.999903        0.000206  0.999887      0.000183         0.375964
5   -0.006282    -0.000431  0.006300   0.000445  1.854402e-05  1.445907e-05   0.009088  0.009088  0.009088    0.999968        0.000384  1.003066      0.119733         3.951484
6   -0.002062     0.001381  0.002067  -0.001377  4.780020e-06  3.727060e-06   0.003583  0.003583  0.003583    0.999903        0.000207  1.000670      0.132988         1.557710
7   -0.001238    -0.000890  0.001239   0.000891  1.570661e-06  1.224670e-06   0.002201  0.002201  0.002201    0.999903        0.000207  1.001208      0.003104         0.956854
8   -0.001791    -0.000289  0.001791   0.000290  5.659711e-07  4.412970e-07   0.002619  0.002619  0.002619    0.999903        0.000207  1.000249      0.011112         1.138580
9   -0.016941    -0.011507  0.016942   0.011507  1.450679e-07  1.131118e-07   0.000788  0.000788  0.000788    0.999930        0.000409  0.999939      0.000443         0.342752
10  -0.007728    -0.005722  0.007728   0.005722  4.522979e-08  3.526641e-08   0.000370  0.000370  0.000370    0.999924        0.000400  0.999930      0.000409         0.160934
11  -0.010439    -0.005569  0.010439   0.005569  6.847648e-08  5.339224e-08   0.000455  0.000455  0.000455    0.999880        0.000111  0.999887      0.000183         0.198019
12   0.003276    -0.000435 -0.003270   0.000440  6.400532e-06  4.990600e-06   0.004747  0.004747  0.004747    1.004793        0.220283  1.003066      0.119733         2.064127
13   0.001204     0.000393 -0.001203  -0.000393  1.062468e-06  8.284236e-07   0.001821  0.001821  0.001821    1.004070        0.140446  1.003066      0.119733         0.791633
14   0.001039    -0.000434 -0.001038   0.000435  1.135311e-06  8.852205e-07   0.001617  0.001617  0.001617    1.005423        0.284136  1.004793      0.220283         0.703043
15  -0.000114     0.000651  0.000114  -0.000650  5.308895e-07  4.139433e-07   0.000953  0.000953  0.000953    1.000249        0.011112  0.999771      0.062668         0.414526
16   0.002079     0.001056 -0.002074  -0.001053  4.704362e-06  3.668069e-06   0.003355  0.003355  0.003355    1.003189        0.161045  1.000670      0.132988         1.458771
--------------------------------------------------

TRAFO:
    p_hv_mw  q_hv_mvar   p_lv_mw  q_lv_mvar    pl_mw  ql_mvar   i_hv_ka   i_lv_ka  vm_hv_pu  va_hv_degree  vm_lv_pu  va_lv_degree  loading_percent
0 -0.006272   0.000569  0.006282   0.000431  0.00001    0.001  0.000242  0.009088  0.999968      0.000384  0.999968      0.000384         0.062976
1 -0.005081   0.001201  0.005091  -0.000201  0.00001    0.001  0.000201  0.007355  0.999903      0.000206  0.999903      0.000207         0.052216
2  0.016861   0.023928 -0.016851  -0.019928  0.00001    0.004  0.000241  0.001005  1.000000      0.000000  1.000000      0.000003         0.073180
3  0.021887   0.022378 -0.021877  -0.018378  0.00001    0.004  0.000258  0.001100  1.000000      0.000000  1.000000      0.000003         0.078256
--------------------------------------------------
